9
Properties=species:S:1:pos:R:3 dipole_vector="-0.11546 0.32466 0.03594" energy=-6235.828867410798 pbc="F F F"
O        1.58074956       0.32890065      -0.08993070
H        0.87961966       0.15905197      -0.74018924
H        2.30024726      -0.25102977      -0.32991378
O       -0.84249114      -0.26860360      -1.35211437
H       -1.05733294      -0.28125254      -0.40510433
H       -1.56858824       0.18136914      -1.77758234
O       -0.72875404      -0.08605961       1.43846209
H       -0.88297654       0.50819071       2.16890319
H        0.17817686       0.09257467       1.14075549
9
Properties=species:S:1:pos:R:3 dipole_vector="-0.05500 0.03539 0.33988" energy=-6235.510632583966 pbc="F F F"
O       -2.45725552       0.59996000       0.07147785
H       -2.90858382       1.10811845      -0.60393552
H       -2.95722122      -0.21379003       0.14805385
O        0.16806298      -0.10817536      -1.03841929
H        0.79653818      -0.25579175      -0.32359127
H       -0.64698142       0.15952769      -0.60048322
O        2.29130628      -0.49314507       0.95388170
H        2.91412618      -1.11168632       0.56968590
H        2.76857258       0.33521453       1.01755472
12
Properties=species:S:1:pos:R:3 dipole_vector="-0.00001 -0.00000 0.00000" energy=-8314.773156814874 pbc="F F F"
O       -0.78305005      -1.62349901      -0.74770693
H       -1.59668495      -1.86619581      -1.18247273
H       -0.45519595      -0.83795361      -1.21670292
O        0.19712115       0.74010459      -1.79481843
H        0.34546515       1.17774959      -0.93983982
H        0.91608665       1.01646419      -2.35752442
O        0.02406355      -0.81875241       1.77117207
H        0.50182965      -1.52063761       2.20593787
H       -0.29771755      -1.19472511       0.93473477
O        0.56186535       1.70214649       0.77135327
H        0.40744825       0.85493269       1.22180797
H        0.17876865       2.37037079       1.33405927
12
Properties=species:S:1:pos:R:3 dipole_vector="0.15445 1.01236 0.71671" energy=-8314.562166611062 pbc="F F F"
O        0.75189963       1.39747661      -0.12012345
H        1.46092740       1.94532431      -0.44636971
H        1.00532762       0.47599352      -0.30778748
O       -1.39665517       0.10040129      -1.59437138
H       -2.23594197       0.12762011      -1.13695961
H       -0.84431323       0.76010169      -1.15328556
O       -0.14948329      -0.23459779       2.06844281
H        0.25485698      -0.06677877       2.91759441
H        0.09532634       0.51767863       1.51092471
O        0.78170339      -1.34289800      -0.41230542
H        0.46230165      -1.31853353       0.50006721
H        0.00047818      -1.17770921      -0.95793301
12
Properties=species:S:1:pos:R:3 dipole_vector="-0.85472 -0.41456 0.99243" energy=-8314.529674667194 pbc="F F F"
O       -0.15637014       2.14016462       0.26035732
H       -0.69176408       2.88110762       0.53723752
H       -0.45474403       1.38996632       0.79279842
O       -0.23931464      -0.06914494      -1.55211318
H       -0.09749404       0.83341532      -1.23454718
H        0.54028044      -0.56762669      -1.27046828
O        1.51544807      -1.53242848       0.16619532
H        1.72758684      -2.43364022       0.40097372
H        0.76428339      -1.28795216       0.72413962
O       -1.05065628      -0.50509140       1.04594552
H       -1.89886131      -0.89613411       1.23813762
H       -0.98615529      -0.45084546       0.07537972
12
Properties=species:S:1:pos:R:3 dipole_vector="-0.38909 -0.55038 1.32939" energy=-8314.460518834274 pbc="F F F"
O        0.83094108       2.09617795      -0.51377457
H        0.95594632       1.18313775      -0.20156831
H        1.67923057       2.36829555      -0.85642117
O       -1.16278994       0.57655608      -1.78775758
H       -0.57008613       1.27470485      -1.46556824
H       -2.04614318       0.91620337      -1.66318101
O       -0.36305154      -2.02936471       2.23415598
H       -0.60593427      -1.63122094       3.07033758
H       -0.20865167      -2.95440019       2.42723688
O        0.72280442      -0.61558641      -0.01996201
H        0.00090205      -0.50463403      -0.65469426
H        0.35184323      -1.09305728       0.73009238
